%pal nprocs  10 end

! DLPNO-CCSD(T) normalPNO RIJK cc-pVTZ cc-pVTZ/JK cc-pVTZ/C tightSCF noautostart miniprint nopop
%maxcore 3500
* xyz   0  1
C        22.26020731676717      20.34851682571741       3.55324537896818
H        22.21095632157374      21.164752639546       4.27240585594724
H        23.1994515522191      20.41460926093094       3.00770915598815
H        21.42203235379657      20.41371727414856       2.85899053503798
H        22.22431314329017      19.4015567921012       4.09032906835264
O        28.024772698308865      19.275800684822055       6.118214393009801
H        28.327091262129645      19.468729545849797       7.011697342691501
H        28.407708467000113      18.420568897013297       5.89795363291568
 *

$new_job
! DLPNO-CCSD(T) normalPNO RIJK cc-pVTZ cc-pVTZ/JK cc-pVTZ/C tightSCF noautostart miniprint nopop Pmodel
%maxcore 3500
* xyz   0  1
C:       22.26020731676717      20.34851682571741       3.55324537896818
H:       22.21095632157374      21.164752639546       4.27240585594724
H:       23.1994515522191      20.41460926093094       3.00770915598815
H:       21.42203235379657      20.41371727414856       2.85899053503798
H:       22.22431314329017      19.4015567921012       4.09032906835264
O        28.024772698308865      19.275800684822055       6.118214393009801
H        28.327091262129645      19.468729545849797       7.011697342691501
H        28.407708467000113      18.420568897013297       5.89795363291568
 *

$new_job
! DLPNO-CCSD(T) normalPNO RIJK cc-pVTZ cc-pVTZ/JK cc-pVTZ/C tightSCF noautostart miniprint nopop Pmodel
%maxcore 3500
* xyz   0  1
C        22.26020731676717      20.34851682571741       3.55324537896818
H        22.21095632157374      21.164752639546       4.27240585594724
H        23.1994515522191      20.41460926093094       3.00770915598815
H        21.42203235379657      20.41371727414856       2.85899053503798
H        22.22431314329017      19.4015567921012       4.09032906835264
O:       28.024772698308865      19.275800684822055       6.118214393009801
H:       28.327091262129645      19.468729545849797       7.011697342691501
H:       28.407708467000113      18.420568897013297       5.89795363291568
 *
