%pal nprocs  10 end

! DLPNO-CCSD(T) normalPNO RIJK cc-pVTZ cc-pVTZ/JK cc-pVTZ/C tightSCF noautostart miniprint nopop
%maxcore 3500
* xyz   0  1
C        22.26020731676717      20.34851682571741       3.55324537896818
H        22.21095632157374      21.164752639546       4.27240585594724
H        23.1994515522191      20.41460926093094       3.00770915598815
H        21.42203235379657      20.41371727414856       2.85899053503798
H        22.22431314329017      19.4015567921012       4.09032906835264
O        27.124059357442974      19.443412581836956       5.717437984565798
H        27.426377921263754      19.636341442864698       6.610920934247498
H        27.50699512613422      18.588180794028197       5.4971772244716774
 *

$new_job
! DLPNO-CCSD(T) normalPNO RIJK cc-pVTZ cc-pVTZ/JK cc-pVTZ/C tightSCF noautostart miniprint nopop Pmodel
%maxcore 3500
* xyz   0  1
C:       22.26020731676717      20.34851682571741       3.55324537896818
H:       22.21095632157374      21.164752639546       4.27240585594724
H:       23.1994515522191      20.41460926093094       3.00770915598815
H:       21.42203235379657      20.41371727414856       2.85899053503798
H:       22.22431314329017      19.4015567921012       4.09032906835264
O        27.124059357442974      19.443412581836956       5.717437984565798
H        27.426377921263754      19.636341442864698       6.610920934247498
H        27.50699512613422      18.588180794028197       5.4971772244716774
 *

$new_job
! DLPNO-CCSD(T) normalPNO RIJK cc-pVTZ cc-pVTZ/JK cc-pVTZ/C tightSCF noautostart miniprint nopop Pmodel
%maxcore 3500
* xyz   0  1
C        22.26020731676717      20.34851682571741       3.55324537896818
H        22.21095632157374      21.164752639546       4.27240585594724
H        23.1994515522191      20.41460926093094       3.00770915598815
H        21.42203235379657      20.41371727414856       2.85899053503798
H        22.22431314329017      19.4015567921012       4.09032906835264
O:       27.124059357442974      19.443412581836956       5.717437984565798
H:       27.426377921263754      19.636341442864698       6.610920934247498
H:       27.50699512613422      18.588180794028197       5.4971772244716774
 *
